<routes>
    <flow id="detected-0" begin="120" end="1000" number="5" from="-66071387#4" to="-66071387#0" speedFactor="1.0" speedDev="0.2">
    </flow>
    <flow id="detected-2" begin="120" end="1000" number="6" from="66071387#0" to="66071387#2" speedFactor="1.0" speedDev="0.2">
    </flow>
</routes>