<?xml version="1.0" encoding="UTF-8"?>

<!-- generated on 2022-11-08 14:48:57 by Eclipse SUMO polyconvert Version 1.12.0
<configuration xmlns:xsi="http://www.w3.org/2001/XMLSchema-instance" xsi:noNamespaceSchemaLocation="http://sumo.dlr.de/xsd/polyconvertConfiguration.xsd">

    <input>
        <net-file value="osm.net.xml"/>
        <osm-files value="osm_bbox.osm.xml"/>
        <osm.keep-full-type value="true"/>
        <type-file value="/usr/share/sumo/data/typemap/osmPolyconvert.typ.xml"/>
    </input>

    <output>
        <output-file value="osm.poly.xml"/>
    </output>

    <processing>
        <poi-layer-offset value="5"/>
    </processing>

    <report>
        <verbose value="true"/>
    </report>

</configuration>
-->

<additional xmlns:xsi="http://www.w3.org/2001/XMLSchema-instance" xsi:noNamespaceSchemaLocation="http://sumo.dlr.de/xsd/additional_file.xsd">
    <location netOffset="-389993.71,-5818363.23" convBoundary="-789.44,-11732.05,9628.46,3976.74" origBoundary="13.366460,52.400521,13.524162,52.540048" projParameter="+proj=utm +zone=33 +ellps=WGS84 +datum=WGS84 +units=m +no_defs"/>

    <poly id="1029477571" type="amenity.bicycle_parking" color="237,199,199" fill="1" layer="-1.00" shape="585.595249,487.412083 587.294058,488.386760 596.689756,472.219877 594.997481,471.233922 585.595249,487.412083"/>
    <poly id="1034577171" type="landuse.commercial" color="209,209,204" fill="1" layer="-3.00" shape="1485.986050,220.420738 1502.119635,212.786009 1517.962429,205.202284 1521.223134,212.018061 1520.457338,212.391098 1521.891137,215.508458 1546.050830,204.513698 1582.875762,237.482027 1573.578404,247.824986 1589.556846,263.250312 1585.862560,266.291991 1585.093010,265.574599 1571.523175,277.681243 1572.228798,278.578088 1569.514678,280.808031 1569.918634,281.266449 1568.221053,282.795113 1560.618293,289.628795 1536.410986,303.361937 1524.086138,310.355856 1521.267928,304.509508 1511.549383,283.860481 1508.542380,277.461940 1519.259535,272.373014 1505.498457,243.946306 1500.110314,232.125728 1501.641156,231.346280 1500.175769,228.029329 1499.390110,228.425065 1491.788468,232.243254 1485.986050,220.420738"/>
    <poly id="104011034" type="landuse.construction" color="194,194,130" fill="1" layer="-3.00" shape="1692.889549,514.996247 1681.831511,507.106469 1654.564653,488.681253 1665.713079,463.809402 1677.340721,480.566355 1683.327711,476.817524 1689.772495,486.712109 1705.293339,497.151616 1692.889549,514.996247"/>
    <poly id="104011054" type="building.hotel" color="255,230,230" fill="1" layer="-1.00" shape="1681.829144,638.734575 1677.379746,623.888624 1680.300400,623.022860 1681.436341,626.803374 1701.758782,620.745780 1700.674292,617.142166 1707.459765,615.122736 1706.382555,611.541215 1726.684730,605.484176 1727.725291,608.944108 1730.726657,608.043208 1731.899442,611.956449 1734.054558,619.152868 1735.161102,622.833895 1687.798387,636.955715 1681.829144,638.734575"/>
    <poly id="104011054#1" type="tourism.hotel" color="207,245,201" fill="1" layer="-2.00" shape="1681.829144,638.734575 1677.379746,623.888624 1680.300400,623.022860 1681.436341,626.803374 1701.758782,620.745780 1700.674292,617.142166 1707.459765,615.122736 1706.382555,611.541215 1726.684730,605.484176 1727.725291,608.944108 1730.726657,608.043208 1731.899442,611.956449 1734.054558,619.152868 1735.161102,622.833895 1687.798387,636.955715 1681.829144,638.734575"/>
    <poly id="1043697700" type="natural.scrub" color="140,196,107" fill="1" layer="-4.00" shape="1352.527388,747.221079 1353.025399,740.900683 1391.924063,743.799258 1391.201447,750.402818 1390.892620,750.865896 1389.420066,752.122580 1387.063877,752.720072 1384.874513,752.267872 1381.316893,750.121232 1379.993527,749.839002 1379.087178,749.992630 1376.970954,751.308100 1374.973065,751.530442 1373.467467,751.296765 1373.009853,751.173381 1370.918097,749.305818 1369.544023,748.880056 1367.647302,749.378348 1365.721452,751.012302 1364.814117,751.121443 1362.563701,748.222535 1361.545951,747.332642 1360.132513,747.274966 1358.369657,747.992845 1356.394214,749.227309 1354.944009,749.348492 1354.112804,748.910695 1352.527388,747.221079"/>
    <poly id="1043697706" type="landuse.grass" color="194,194,130" fill="1" layer="-3.00" shape="1507.760329,848.880799 1517.074544,858.366652 1527.228411,850.586165 1520.167344,840.449506 1507.760329,848.880799"/>
    <poly id="1043697707" type="landuse.grass" color="194,194,130" fill="1" layer="-3.00" shape="1468.209147,831.196092 1480.844776,822.359041 1513.596850,857.063848 1506.741450,856.214192 1501.769681,854.276832 1468.209147,831.196092"/>
    <poly id="1043697710" type="landuse.grass" color="194,194,130" fill="1" layer="-3.00" shape="1428.290346,859.120738 1421.625893,895.677955 1406.549106,874.313342 1428.290346,859.120738"/>
    <poly id="1043697711" type="landuse.grass" color="194,194,130" fill="1" layer="-3.00" shape="1466.591386,832.333567 1499.127186,854.513402 1510.670127,862.859375 1488.048224,878.761025 1458.501858,837.987580 1466.591386,832.333567"/>
    <poly id="1043697712" type="landuse.grass" color="194,194,130" fill="1" layer="-3.00" shape="1430.830716,857.339656 1423.331631,898.511068 1429.376275,905.665668 1474.829244,873.211879 1452.571859,842.136040 1430.830716,857.339656"/>
    <poly id="1046158933" type="landuse.flowerbed" color="194,194,130" fill="1" layer="-3.00" shape="390.689712,822.038266 394.576215,823.086330 394.790842,820.844864 394.711785,820.345887 394.330670,819.697881 394.328448,818.384865 390.728687,817.408279 390.709855,819.600854 390.663150,820.547752 390.689712,822.038266"/>
    <poly id="1046158934" type="natural.scrub" color="140,196,107" fill="1" layer="-4.00" shape="394.576215,823.086330 397.998295,824.011254 398.123828,822.339294 397.682091,820.802430 397.843907,819.841829 397.791745,819.331123 394.328448,818.384865 394.330670,819.697881 394.711785,820.345887 394.790842,820.844864 394.576215,823.086330"/>
    <poly id="1046158935" type="landuse.flowerbed" color="194,194,130" fill="1" layer="-3.00" shape="397.998295,824.011254 400.860456,824.792921 400.894089,823.868572 401.012884,823.109231 401.001189,822.586492 400.849298,821.866591 400.652846,820.368750 400.735587,820.122090 397.791745,819.331123 397.843907,819.841829 397.682091,820.802430 398.123828,822.339294 397.998295,824.011254"/>
    <poly id="1046158936" type="natural.scrub" color="140,196,107" fill="1" layer="-4.00" shape="400.860456,824.792921 401.684275,824.896894 402.487305,824.678630 403.155434,824.196319 403.608475,823.507395 403.780313,822.691230 403.646789,821.881897 403.223467,821.168069 402.573658,820.648478 401.780782,820.410280 400.735587,820.122090 400.652846,820.368750 400.849298,821.866591 401.001189,822.586492 401.012884,823.109231 400.894089,823.868572 400.860456,824.792921"/>
    <poly id="1046158937" type="landuse.flowerbed" color="194,194,130" fill="1" layer="-3.00" shape="412.729423,828.499969 415.297799,829.199195 415.429105,828.695513 415.400243,827.405347 415.101692,826.199109 415.083982,824.496971 411.641299,823.561367 411.671269,825.508040 412.707166,826.898082 412.729423,828.499969"/>
    <poly id="1046158938" type="natural.scrub" color="140,196,107" fill="1" layer="-4.00" shape="415.297799,829.199195 419.471284,830.329879 419.126477,829.180314 418.619919,828.690900 418.560227,828.146979 418.904766,827.160036 418.711124,825.484089 415.083982,824.496971 415.101692,826.199109 415.400243,827.405347 415.429105,828.695513 415.297799,829.199195"/>
    <poly id="1046158939" type="landuse.flowerbed" color="194,194,130" fill="1" layer="-3.00" shape="419.471284,830.329879 422.715929,831.214280 422.252916,829.332932 422.169839,827.743532 422.707185,826.574234 418.711124,825.484089 418.904766,827.160036 418.560227,828.146979 418.619919,828.690900 419.126477,829.180314 419.471284,830.329879"/>
    <poly id="1046158940" type="natural.scrub" color="140,196,107" fill="1" layer="-4.00" shape="422.715929,831.214280 423.539497,831.307134 424.335991,831.100147 425.010906,830.617688 425.463701,829.917644 425.635791,829.112602 425.495237,828.292297 425.078704,827.578315 424.422361,827.069996 423.629238,826.820673 422.707185,826.574234 422.169839,827.743532 422.252916,829.332932 422.715929,831.214280"/>
    <poly id="1046158941" type="landuse.flowerbed" color="194,194,130" fill="1" layer="-3.00" shape="444.504601,832.830071 441.471814,832.007685 441.333650,832.811967 440.946403,833.710842 441.213188,835.318389 441.337292,836.617551 444.827709,837.563235 445.202629,836.720275 445.190938,836.197535 444.603233,834.508145 444.504601,832.830071"/>
    <poly id="1046158942" type="natural.scrub" color="140,196,107" fill="1" layer="-4.00" shape="441.471814,832.007685 437.352871,830.886890 437.291481,831.177583 437.274646,832.246216 437.669200,835.620205 441.337292,836.617551 441.213188,835.318389 440.946403,833.710842 441.333650,832.811967 441.471814,832.007685"/>
    <poly id="1046158943" type="landuse.flowerbed" color="194,194,130" fill="1" layer="-3.00" shape="437.352871,830.886890 433.322888,829.797492 433.704992,830.489989 433.716684,831.012728 433.185237,832.749405 434.047819,833.675965 434.438381,834.746614 437.669200,835.620205 437.274646,832.246216 437.291481,831.177583 437.352871,830.886890"/>
    <poly id="1046158944" type="natural.scrub" color="140,196,107" fill="1" layer="-4.00" shape="433.322888,829.797492 432.496017,829.860497 431.743471,830.211159 431.173078,830.813684 430.857491,831.577425 430.841971,832.401220 431.124031,833.173849 431.667751,833.807093 432.402785,834.191249 434.438381,834.746614 434.047819,833.675965 433.185237,832.749405 433.716684,831.012728 433.704992,830.489989 433.322888,829.797492"/>
    <poly id="1046184819" type="natural.scrub" color="140,196,107" fill="1" layer="-4.00" shape="879.021456,250.481249 863.827777,249.361940 863.906723,246.199934 866.449367,246.343596 869.048780,246.597270 872.664003,247.340193 875.582385,247.586767 877.697771,248.363097 879.021456,250.481249"/>
    <poly id="1046184820" type="natural.scrub" color="140,196,107" fill="1" layer="-4.00" shape="893.155833,244.279960 892.794258,248.472000 887.318920,251.097649 884.448791,250.883376 886.483576,248.345472 888.851450,246.434426 890.241760,245.446488 892.090982,244.637502 893.155833,244.279960"/>
    <poly id="1046188031" type="landuse.grass" color="194,194,130" fill="1" layer="-3.00" shape="1232.880233,260.940218 1235.932964,225.030445 1256.405222,226.890575 1262.114047,238.447854 1260.244035,263.103607 1232.880233,260.940218"/>
    <poly id="1046188032" type="landuse.grass" color="194,194,130" fill="1" layer="-3.00" shape="1257.980386,280.423882 1255.257752,280.428672 1231.151588,278.805012 1232.714793,263.581132 1259.494321,266.035677 1257.980386,280.423882"/>
    <poly id="1046188033" type="landuse.grass" color="194,194,130" fill="1" layer="-3.00" shape="1275.450500,266.950118 1279.319094,275.443651 1263.262900,280.117474 1263.891900,269.298614 1273.515847,270.030884 1272.711324,266.821734 1275.450500,266.950118"/>
    <poly id="1056820805" type="building.yes" color="255,230,230" fill="1" layer="-1.00" shape="545.588779,480.338310 545.413783,482.534369 545.556670,484.979262 545.776426,486.610119 547.091442,489.551826 548.856492,491.971606 551.055518,493.758543 553.337376,494.998375 555.424078,495.708440 557.819297,495.944252 559.409515,496.008878 559.562447,495.560355 560.164110,485.109169 557.601714,484.988367 556.040766,483.498747 556.127949,480.714885 545.588779,480.338310"/>
    <poly id="105738814" type="building.yes" color="255,230,230" fill="1" layer="-1.00" shape="1725.023562,729.993896 1725.108286,730.448254 1718.007723,731.105939 1717.862171,730.664053 1708.817252,731.509388 1708.587958,729.122028 1707.424915,716.128478 1708.839143,712.536392 1707.284924,697.203571 1706.729706,697.271482 1706.294029,692.919105 1706.903536,692.849993 1705.903840,681.410693 1703.479183,677.992490 1697.654309,678.622001 1691.938011,679.249118 1684.412320,680.027524 1682.446900,658.383339 1681.806231,651.209092 1680.977620,644.439593 1682.260178,644.411235 1682.123767,643.768851 1681.829144,638.734575 1687.798387,636.955715 1688.366352,638.078170 1688.638151,643.001675 1688.611597,643.336090 1690.296204,663.028032 1690.704101,663.052397 1690.817845,664.819166 1690.451401,664.827268 1690.580585,666.371144 1696.149573,665.836303 1706.061253,664.882768 1705.883342,663.284330 1705.097150,663.346220 1704.859395,661.804743 1705.753426,661.707087 1704.603302,648.991442 1714.004345,647.971319 1714.578156,648.437121 1714.794122,650.835903 1714.367833,650.900963 1715.624392,663.825682 1729.379805,662.609193 1731.615988,662.415114 1731.541597,660.892281 1730.695419,651.174358 1730.209679,651.007052 1729.941249,648.998894 1730.993626,648.385875 1739.642409,647.426937 1741.098196,661.382121 1756.735704,659.923823 1757.307381,666.131502 1756.115012,666.246868 1756.872709,672.884412 1756.140527,676.005182 1755.638706,676.338969 1756.591371,688.113142 1757.126479,688.056808 1757.537669,692.532133 1757.002071,692.566223 1758.363122,708.381807 1760.108944,711.191891 1762.704269,710.967634 1780.294496,709.399496 1781.410687,725.198239 1774.059525,725.883633 1773.960742,725.407330 1764.007970,726.339384 1753.438666,727.329593 1753.523633,727.795073 1746.321767,728.477210 1746.250125,728.000308 1735.904516,728.974483 1725.023562,729.993896"/>
    <poly id="1064890629" type="landuse.grass" color="194,194,130" fill="1" layer="-3.00" shape="1634.165377,249.700452 1630.801064,255.383159 1669.466750,290.269845 1675.790644,285.779145 1634.165377,249.700452"/>
    <poly id="1064890631" type="landuse.grass" color="194,194,130" fill="1" layer="-3.00" shape="1587.430059,197.511157 1612.634171,215.302905 1626.163701,192.459173 1637.549345,180.434383 1631.962479,167.905901 1587.430059,197.511157"/>
    <poly id="1075125653" type="amenity.toilets" color="237,199,199" fill="1" layer="-1.00" shape="1477.247132,790.513676 1480.127113,788.124209 1478.760133,786.485353 1475.880151,788.874821 1477.247132,790.513676"/>
    <poly id="1075684741" type="historic.memorial" color="128,255,128" fill="1" layer="-1.00" shape="1201.959107,314.149043 1209.536661,314.459268 1209.648040,311.830680 1202.070482,311.520455 1201.959107,314.149043"/>
    <poly id="1080545901" type="landuse.grass" color="194,194,130" fill="1" layer="-3.00" shape="1337.745959,662.990282 1333.324598,657.413277 1338.234131,650.716837 1372.427367,652.951850 1374.272374,656.549664 1373.600925,656.887253 1374.679502,658.988709 1375.350705,658.639998 1376.471723,660.818406 1371.595856,665.666878 1370.669157,663.984904 1368.495312,662.397351 1364.002005,661.228444 1357.079071,658.878258 1354.342216,658.538361 1348.514021,658.712129 1344.522363,659.345913 1339.703915,661.578158 1338.443441,662.296027 1337.745959,662.990282"/>
    <poly id="1080545902" type="natural.scrub" color="140,196,107" fill="1" layer="-4.00" shape="1371.595856,665.666878 1367.144930,670.083083 1365.905574,668.997806 1362.447824,667.071516 1358.552674,665.933860 1354.670595,665.385680 1349.851549,665.448046 1345.091226,666.321429 1342.023947,667.613497 1341.615182,667.856243 1337.745959,662.990282 1338.443441,662.296027 1339.703915,661.578158 1344.522363,659.345913 1348.514021,658.712129 1354.342216,658.538361 1357.079071,658.878258 1364.002005,661.228444 1368.495312,662.397351 1370.669157,663.984904 1371.595856,665.666878"/>
    <poly id="1080545903" type="natural.scrub" color="140,196,107" fill="1" layer="-4.00" shape="1412.160906,690.728237 1411.560126,698.541999 1372.685800,695.531440 1373.309469,687.527995 1412.160906,690.728237"/>
    <poly id="1080545904" type="landuse.grass" color="194,194,130" fill="1" layer="-3.00" shape="1302.433702,666.010315 1312.353230,664.187854 1328.267532,659.294742 1329.428932,658.089454 1329.579216,656.906594 1305.379544,626.809171 1302.433702,666.010315"/>
    <poly id="1080545905" type="natural.scrub" color="140,196,107" fill="1" layer="-4.00" shape="1332.901775,681.814359 1301.411013,679.586429 1301.983121,672.018091 1308.304209,670.498019 1312.256495,670.232289 1317.004222,670.627700 1321.738994,670.745213 1326.048594,670.059846 1328.389767,668.783876 1330.244946,666.105481 1332.193041,661.800396 1332.876207,661.685094 1338.968758,669.450551 1336.963794,671.497991 1335.546005,673.387749 1333.847395,676.696942 1333.044042,679.964021 1332.901775,681.814359"/>
    <poly id="1080545906" type="natural.scrub" color="140,196,107" fill="1" layer="-4.00" shape="1332.689793,684.500813 1332.077047,692.381620 1300.635951,689.941171 1301.227796,682.038567 1332.689793,684.500813"/>
    <poly id="1080545907" type="natural.scrub" color="140,196,107" fill="1" layer="-4.00" shape="1373.493709,685.120348 1373.652896,683.113851 1373.112404,679.865449 1371.949574,676.719868 1370.470515,673.703703 1369.061518,672.010168 1378.204960,663.050005 1381.362197,670.101665 1382.659016,673.166384 1385.063418,676.885330 1387.546704,677.731609 1389.699329,678.362667 1412.967174,680.239298 1412.345163,688.320592 1373.493709,685.120348"/>
    <poly id="1080545908" type="landuse.grass" color="194,194,130" fill="1" layer="-3.00" shape="1414.532596,636.306236 1408.111900,636.092472 1381.702500,660.646789 1392.340602,668.267017 1403.311091,674.344290 1409.231262,676.483088 1412.484367,669.178042 1414.532596,636.306236"/>
    <poly id="1080545909" type="natural.scrub" color="140,196,107" fill="1" layer="-4.00" shape="1395.248820,634.074204 1397.159643,634.209885 1396.525780,643.593373 1394.621993,643.468664 1395.248820,634.074204"/>
    <poly id="1080545910" type="natural.scrub" color="140,196,107" fill="1" layer="-4.00" shape="1404.796895,621.922633 1406.101637,623.507212 1406.323074,625.227081 1405.744145,626.063356 1402.798129,626.395723 1389.580271,625.831921 1386.984635,627.881307 1383.841128,633.392396 1379.184497,636.800538 1378.772151,645.455824 1384.337850,650.284203 1384.127464,651.512904 1376.354157,650.617005 1378.106909,625.863747 1337.082772,622.990138 1310.774954,621.203557 1311.048499,615.477900 1404.796895,621.922633"/>
    <poly id="1080545911" type="landuse.grass" color="194,194,130" fill="1" layer="-3.00" shape="1378.421790,659.662408 1377.684590,659.178011 1375.320906,654.234130 1375.419005,653.453023 1383.871905,653.766345 1383.999844,654.331015 1378.421790,659.662408"/>
    <poly id="1080545912" type="landuse.grass" color="194,194,130" fill="1" layer="-3.00" shape="1327.673731,649.971857 1335.382154,650.390631 1331.966537,656.486427 1327.343065,650.368658 1327.673731,649.971857"/>
    <poly id="1081674674" type="building.residential" color="255,230,230" fill="1" layer="-1.00" shape="820.714722,298.560756 821.428410,285.492136 822.924802,284.390538 841.622717,285.542920 841.142244,293.843712 839.347381,293.739042 839.165776,298.082866 839.705284,298.527079 838.024322,299.877591 820.714722,298.560756"/>
    <poly id="112148761" type="building.residential" color="255,230,230" fill="1" layer="-1.00" shape="684.714607,234.716087 684.786951,234.002304 685.093341,234.039979 685.906453,224.529956 685.579951,224.503858 685.652296,223.790074 686.631803,223.868370 686.609123,224.069173 700.363432,225.186664 708.077075,225.804658 708.145206,224.901799 709.131498,224.979948 709.063368,225.882807 723.232641,227.035616 723.424371,224.672279 722.240274,224.554029 722.673650,219.325499 721.048173,219.205966 721.307788,215.928649 718.764378,215.751696 718.791861,215.461764 719.008289,215.423554 728.464531,216.236395 726.936320,238.136294 723.025341,237.834052 706.592935,236.587068 698.866232,235.991623 692.860508,235.535838 684.714607,234.716087"/>
    <poly id="112148762" type="building.residential" color="255,230,230" fill="1" layer="-1.00" shape="606.526904,227.981892 616.083209,228.714388 618.729163,228.922382 619.492242,219.001737 619.550259,218.254890 616.904548,218.058018 611.993674,217.678038 612.156881,215.560140 613.122818,215.638724 613.475965,211.079631 607.864570,210.648528 606.526904,227.981892"/>
    <poly id="112148765" type="building.residential" color="255,230,230" fill="1" layer="-1.00" shape="735.363325,225.986143 745.751293,226.867260 746.356565,225.996935 747.758014,225.509452 748.205310,217.554343 745.842393,214.813994 745.349606,215.247833 743.375778,215.035911 740.624621,215.286429 739.749326,214.705056 737.652594,214.462494 737.044208,213.975317 733.784533,218.521321 733.539048,222.432598 735.363325,225.986143"/>
    <poly id="112148770" type="building.residential" color="255,230,230" fill="1" layer="-1.00" shape="580.956810,226.204926 606.526904,227.981892 607.864570,210.648528 608.818315,198.320052 601.880526,197.785038 600.780727,212.086371 599.381030,213.564219 595.005797,213.150040 596.221855,197.366131 583.278276,196.375484 581.866622,214.344785 580.956810,226.204926"/>
    <poly id="112148773" type="building.residential" color="255,230,230" fill="1" layer="-1.00" shape="500.654490,205.988399 501.265569,203.860487 490.119475,200.660021 488.581859,205.991154 484.919730,218.647264 507.127799,220.376458 507.181001,219.718737 508.330676,219.815450 509.439134,219.890828 509.393216,220.570642 527.866459,221.982796 527.914865,221.414203 529.064291,221.499799 530.336372,221.604909 530.294753,222.173349 547.591411,223.500589 548.781803,223.596401 548.818874,223.128211 549.662404,223.198389 550.941022,223.292231 550.898655,223.827305 569.365082,225.239767 569.401907,224.760455 570.490003,224.836302 571.612280,224.922513 571.570407,225.479831 576.052727,225.824831 580.956810,226.204926 581.866622,214.344785 577.037428,213.974144 500.721828,208.090022 495.169200,211.808352 494.179222,210.350499 500.654490,205.988399"/>
    <poly id="112148774" type="building.residential" color="255,230,230" fill="1" layer="-1.00" shape="726.936320,238.136294 728.464531,216.236395 719.008289,215.423554 719.456478,210.250332 712.847051,209.518668 713.760233,198.404039 715.522195,198.553909 715.572360,198.063174 716.340988,198.123924 716.280475,198.759549 720.358652,199.859247 725.018426,200.244936 724.496600,207.901264 743.463060,209.815101 761.939874,211.695417 759.689692,240.810980 726.936320,238.136294"/>
    <poly id="112149771" type="building.residential" color="255,230,230" fill="1" layer="-1.00" shape="783.785590,242.866541 783.904215,242.096090 783.024870,241.637203 782.217450,241.054309 781.508606,240.324558 780.933510,239.502805 780.505736,238.588747 780.239849,237.626569 780.123019,236.649941 779.814646,236.523284 780.901693,222.845440 783.287283,192.792153 797.856047,193.891765 800.037788,193.987799 799.643531,197.624195 797.712953,200.571536 797.155208,200.528328 796.638265,205.057670 798.805618,206.945573 798.098390,216.341933 792.899425,218.572060 791.902740,229.299062 792.414215,229.398938 792.010487,232.000676 792.937648,233.081646 793.877175,233.194237 795.455951,229.086333 798.739058,230.159306 797.236452,233.419810 796.498491,243.873981 791.751037,243.512436 786.499639,243.084234 783.785590,242.866541"/>
    <poly id="112149774" type="building.residential" color="255,230,230" fill="1" layer="-1.00" shape="822.991753,245.954195 825.299438,218.183837 825.545949,215.229521 836.407742,216.044633 836.335031,217.047740 838.831176,217.236935 838.174890,225.875472 831.366617,225.359505 830.904206,231.423241 837.249989,231.905001 836.099000,246.986333 822.991753,245.954195"/>
    <poly id="112149797" type="building.residential" color="255,230,230" fill="1" layer="-1.00" shape="837.249989,231.905001 837.360047,230.444829 850.194380,231.416320 849.848546,236.008609 851.235986,236.111232 850.784152,242.041198 850.642043,243.891551 849.002758,243.761156 848.681692,247.941171 836.099000,246.986333 837.249989,231.905001"/>
    <poly id="11548677" type="natural.water" color="181,209,209" fill="0" layer="-4.00" shape="2164.854477,948.006314 2135.694228,931.267116 2002.992724,861.427929 1994.673630,853.922205 1985.074785,846.878686 1982.370386,844.924232 1965.978145,833.067664 1924.167948,804.613168 1871.088394,778.054627 1859.430384,773.393584 1836.385728,764.065588 1829.130551,762.946117 1824.290735,762.062635 1818.463437,760.733608 1809.176791,758.624165 1743.811273,749.129821 1677.486679,753.077403 1673.220288,753.872782 1670.688969,754.841219 1667.633720,756.678067 1664.685527,759.057801 1662.583501,761.018231 1660.990170,762.956284 1659.732689,764.731124 1641.297387,800.213003 1633.650947,814.859130 1599.800614,875.919576 1519.702581,1010.756464 1516.664699,1015.820032 1514.168813,1020.526643 1512.842458,1023.171003 1512.355333,1027.844254 1458.647073,1128.859769 1446.320052,1168.124063 1434.189348,1197.246799 1408.359676,1264.039770 1400.317216,1280.353115 1322.166850,1431.730709 1317.445184,1468.879323 1289.428416,1574.612631 1269.147532,1629.732873 1269.935941,1631.306620 1270.011725,1633.497079 1256.856732,1654.597821 1255.073972,1654.403727 1245.992460,1670.640301 1191.959363,1710.008284 1109.474645,1809.308642 1098.500655,1822.516372 1086.226812,1837.399930 1074.105478,1851.812768 1015.385139,1923.190066 1018.048071,1925.423097 1008.487460,1937.153000 1005.791599,1934.965218 1003.519060,1938.988372 998.128603,1941.378398"/>
    <poly id="121674886" type="building.apartments" color="255,230,230" fill="1" layer="-1.00" shape="1313.703435,925.167020 1313.807070,924.942169 1313.281983,924.530970 1313.063114,923.845915 1313.259896,923.229530 1313.651612,922.831372 1313.525029,922.633884 1337.525280,905.855127 1345.012907,916.538453 1339.809411,920.070051 1340.341897,920.814916 1340.487843,922.803520 1340.058001,923.625370 1346.193934,926.627250 1340.505806,938.303877 1313.703435,925.167020"/>
    <poly id="128396193" type="building.apartments" color="255,230,230" fill="1" layer="-1.00" shape="1438.422566,662.572017 1435.839849,694.921529 1413.606758,693.166515 1416.188344,660.772501 1424.295502,661.416255 1424.110251,663.779411 1430.700674,664.301006 1430.886668,661.971217 1438.422566,662.572017"/>
    <poly id="128396194" type="building.residential" color="255,230,230" fill="1" layer="-1.00" shape="1430.886668,661.971217 1438.422566,662.572017 1454.460430,663.863522 1457.378921,626.743978 1448.940673,626.174269 1448.768487,628.514878 1442.350134,628.100721 1442.436695,625.572839 1433.995732,624.880812 1430.886668,661.971217"/>
    <poly id="129925165" type="leisure.playground" color="207,245,201" fill="1" layer="-2.00" shape="1628.189974,199.035259 1619.435810,221.050060 1626.867918,223.990257 1631.183851,213.134436 1635.622109,201.975470 1628.189974,199.035259"/>
    <poly id="129925166" type="leisure.playground" color="207,245,201" fill="1" layer="-2.00" shape="1633.006075,236.272861 1642.045543,239.745036 1660.776153,191.103953 1651.730071,187.643015 1640.146161,217.721073 1633.006075,236.272861"/>
    <poly id="134680847" type="building.industrial" color="255,230,230" fill="1" layer="-1.00" shape="1640.948214,327.053965 1644.237560,330.263850 1649.924771,324.618800 1650.160676,324.847262 1661.355099,313.705823 1621.491557,274.695117 1613.002610,283.829469 1610.500087,286.110345 1613.788250,289.264600 1609.215683,294.039337 1621.309293,305.745074 1628.543737,313.875091 1640.948214,327.053965"/>
    <poly id="134681701" type="amenity.parking" color="184,184,179" fill="1" layer="-1.00" shape="375.197149,590.562000 397.382270,597.710331 427.740464,607.224191 444.588752,612.544755 449.062995,501.112357 451.135170,480.524345 410.807258,468.807483 396.256064,518.539866 375.197149,590.562000"/>
    <poly id="138554284" type="landuse.commercial" color="209,209,204" fill="1" layer="-3.00" shape="547.241941,852.132292 531.635900,850.711712 531.587753,851.291427 528.433694,851.117102 527.691900,860.759114 527.256618,860.724331 525.916987,878.246966 526.338696,878.282053 525.586325,888.057834 524.982945,895.994220 523.574762,914.397476 522.581432,927.060710 536.160464,928.014676 536.175428,927.469086 538.827548,927.665757 538.785193,928.200832 540.002309,928.284911 542.342537,928.499682 544.233173,928.646606 544.288852,928.100106 546.669545,928.302847 546.633974,928.837770 558.971469,929.830668 596.722311,932.737416 599.483492,932.953940 599.428055,933.511562 638.369299,936.525575 638.405625,936.024019 640.928807,936.223625 642.178297,920.728280 644.113128,897.917890 635.315890,897.068289 631.233549,896.669816 599.613750,893.492331 599.601093,893.837571 592.739670,893.334281 576.059075,892.126735 573.556223,891.926708 568.999618,891.572264 570.805261,867.551805 546.333781,865.572551 547.241941,852.132292"/>
    <poly id="145185647" type="building.residential" color="255,230,230" fill="1" layer="-1.00" shape="1662.951623,558.154389 1647.918078,579.874060 1636.858730,572.229221 1640.632439,566.648728 1634.746303,562.672848 1636.393040,560.077081 1597.283416,538.186413 1596.160211,540.815120 1589.745598,538.119529 1587.019804,544.110848 1574.676466,538.586542 1585.435406,514.546549 1597.669719,520.051040 1596.298231,523.119216 1597.290208,523.764921 1597.711654,524.400995 1597.863866,525.143175 1597.799412,525.912404 1597.645508,526.627975 1601.562502,528.444121 1602.809371,527.415051 1603.592385,527.208557 1604.088023,527.208719 1604.887912,527.458083 1606.827476,524.288320 1613.208475,527.919393 1612.650208,529.077885 1616.260689,531.156758 1616.962205,530.028481 1633.367333,539.313186 1632.784522,540.283049 1636.517875,542.392602 1637.101179,541.444984 1643.557765,545.118933 1641.791183,548.129069 1642.408189,548.705183 1642.734620,549.343363 1642.798503,549.775925 1642.827820,550.487442 1642.545075,551.517432 1646.300597,554.015967 1647.389910,552.923627 1648.043739,552.708870 1648.613284,552.674019 1649.165422,552.773083 1649.964176,553.278413 1651.978506,550.418588 1662.951623,558.154389"/>