<?xml version="1.0" encoding="UTF-8"?>

<!-- generated on 2022-11-08 14:48:57 by Eclipse SUMO netconvert Version 1.12.0
<configuration xmlns:xsi="http://www.w3.org/2001/XMLSchema-instance" xsi:noNamespaceSchemaLocation="http://sumo.dlr.de/xsd/netconvertConfiguration.xsd">

    <input>
        <type-files value="/usr/share/sumo/data/typemap/osmNetconvert.typ.xml"/>
        <osm-files value="osm_bbox.osm.xml"/>
    </input>

    <output>
        <output-file value="osm.net.xml"/>
        <output.street-names value="true"/>
        <output.original-names value="true"/>
    </output>

    <projection>
        <proj.utm value="true"/>
    </projection>

    <processing>
        <geometry.remove value="true"/>
        <roundabouts.guess value="true"/>
    </processing>

    <tls_building>
        <tls.discard-simple value="true"/>
        <tls.join value="true"/>
        <tls.guess-signals value="true"/>
        <tls.default-type value="actuated"/>
    </tls_building>

    <ramp_guessing>
        <ramps.guess value="true"/>
    </ramp_guessing>

    <edge_removal>
        <keep-edges.by-vclass value="passenger"/>
    </edge_removal>

    <junctions>
        <junctions.join value="true"/>
        <junctions.corner-detail value="5"/>
    </junctions>

    <report>
        <verbose value="true"/>
        <aggregate-warnings value="5"/>
    </report>

</configuration>
-->

<net version="1.9" junctionCornerDetail="5" limitTurnSpeed="5.50" xmlns:xsi="http://www.w3.org/2001/XMLSchema-instance" xsi:noNamespaceSchemaLocation="http://sumo.dlr.de/xsd/net_file.xsd">

    <location netOffset="-389993.71,-5818363.23" convBoundary="0.00,0.00,1806.51,1170.54" origBoundary="13.378314,52.504470,13.412727,52.516008" projParameter="+proj=utm +zone=33 +ellps=WGS84 +datum=WGS84 +units=m +no_defs"/>

    <type id="highway.bridleway" priority="1" numLanes="1" speed="2.78" allow="pedestrian" oneway="1" width="2.00"/>
    <type id="highway.bus_guideway" priority="1" numLanes="1" speed="27.78" allow="bus" oneway="1"/>
    <type id="highway.cycleway" priority="1" numLanes="1" speed="8.33" allow="bicycle" oneway="0" width="1.00"/>
    <type id="highway.footway" priority="1" numLanes="1" speed="2.78" allow="pedestrian" oneway="1" width="2.00"/>
    <type id="highway.ford" priority="1" numLanes="1" speed="2.78" allow="army" oneway="0"/>
    <type id="highway.living_street" priority="2" numLanes="1" speed="2.78" disallow="tram rail_urban rail rail_electric rail_fast ship" oneway="0"/>
    <type id="highway.motorway" priority="14" numLanes="2" speed="39.44" allow="private emergency authority army vip passenger hov taxi bus coach delivery truck trailer motorcycle evehicle custom1 custom2" oneway="1"/>
    <type id="highway.motorway_link" priority="9" numLanes="1" speed="22.22" allow="private emergency authority army vip passenger hov taxi bus coach delivery truck trailer motorcycle evehicle custom1 custom2" oneway="1"/>
    <type id="highway.path" priority="1" numLanes="1" speed="2.78" allow="pedestrian bicycle" oneway="0" width="2.00"/>
    <type id="highway.pedestrian" priority="1" numLanes="1" speed="2.78" allow="pedestrian" oneway="1" width="2.00"/>
    <type id="highway.primary" priority="12" numLanes="2" speed="27.78" disallow="tram rail_urban rail rail_electric rail_fast ship" oneway="0"/>
    <type id="highway.primary_link" priority="7" numLanes="1" speed="22.22" disallow="tram rail_urban rail rail_electric rail_fast ship" oneway="0"/>
    <type id="highway.raceway" priority="15" numLanes="2" speed="83.33" allow="vip" oneway="0"/>
    <type id="highway.residential" priority="3" numLanes="1" speed="13.89" disallow="tram rail_urban rail rail_electric rail_fast ship" oneway="0"/>
    <type id="highway.secondary" priority="11" numLanes="1" speed="27.78" disallow="tram rail_urban rail rail_electric rail_fast ship" oneway="0"/>
    <type id="highway.secondary_link" priority="6" numLanes="1" speed="22.22" disallow="tram rail_urban rail rail_electric rail_fast ship" oneway="0"/>
    <type id="highway.service" priority="1" numLanes="1" speed="5.56" allow="pedestrian delivery bicycle" oneway="0"/>
    <type id="highway.stairs" priority="1" numLanes="1" speed="1.39" allow="pedestrian" oneway="1" width="2.00"/>
    <type id="highway.step" priority="1" numLanes="1" speed="1.39" allow="pedestrian" oneway="1" width="2.00"/>
    <type id="highway.steps" priority="1" numLanes="1" speed="1.39" allow="pedestrian" oneway="1" width="2.00"/>
    <type id="highway.tertiary" priority="10" numLanes="1" speed="22.22" disallow="tram rail_urban rail rail_electric rail_fast ship" oneway="0"/>
    <type id="highway.tertiary_link" priority="5" numLanes="1" speed="22.22" disallow="tram rail_urban rail rail_electric rail_fast ship" oneway="0"/>
    <type id="highway.track" priority="1" numLanes="1" speed="5.56" allow="pedestrian motorcycle moped bicycle" oneway="0"/>
    <type id="highway.trunk" priority="13" numLanes="2" speed="27.78" disallow="pedestrian bicycle tram rail_urban rail rail_electric rail_fast ship" oneway="0"/>
    <type id="highway.trunk_link" priority="8" numLanes="1" speed="22.22" disallow="pedestrian bicycle tram rail_urban rail rail_electric rail_fast ship" oneway="0"/>
    <type id="highway.unclassified" priority="4" numLanes="1" speed="13.89" disallow="tram rail_urban rail rail_electric rail_fast ship" oneway="0"/>
    <type id="highway.unsurfaced" priority="1" numLanes="1" speed="8.33" disallow="tram rail_urban rail rail_electric rail_fast ship" oneway="0"/>
    <type id="railway.highspeed" priority="21" numLanes="1" speed="69.44" allow="rail_fast" oneway="1"/>
    <type id="railway.light_rail" priority="19" numLanes="1" speed="27.78" allow="rail_urban" oneway="1"/>
    <type id="railway.preserved" priority="16" numLanes="1" speed="27.78" allow="rail" oneway="1"/>
    <type id="railway.rail" priority="20" numLanes="1" speed="44.44" allow="rail" oneway="1"/>
    <type id="railway.subway" priority="18" numLanes="1" speed="27.78" allow="rail_urban" oneway="1"/>
    <type id="railway.tram" priority="17" numLanes="1" speed="13.89" allow="tram" oneway="1"/>

    <edge id=":10162089624_0" function="internal">
        <lane id=":10162089624_0_0" index="0" disallow="tram rail_urban rail rail_electric rail_fast ship" speed="3.65" length="4.67" shape="439.22,946.69 438.13,947.63 437.26,947.81 436.59,947.21 436.14,945.84"/>
    </edge>
    <edge id=":10162133711_0" function="internal">
        <lane id=":10162133711_0_0" index="0" disallow="tram rail_urban rail rail_electric rail_fast ship" speed="3.65" length="4.67" shape="320.70,732.76 319.58,733.67 318.69,733.81 318.05,733.19 317.65,731.80"/>
    </edge>
    <edge id=":1141824924_0" function="internal">
        <lane id=":1141824924_0_0" index="0" disallow="tram rail_urban rail rail_electric rail_fast ship" speed="8.33" length="8.30" shape="910.28,675.66 912.57,676.05 914.25,675.51 915.95,674.92 918.29,675.12"/>
        <lane id=":1141824924_0_1" index="1" disallow="tram rail_urban rail rail_electric rail_fast ship" speed="8.33" length="8.30" shape="909.08,678.63 911.44,679.04 913.17,678.53 914.93,677.95 917.35,678.18"/>
        <lane id=":1141824924_0_2" index="2" disallow="tram rail_urban rail rail_electric rail_fast ship" speed="8.33" length="8.30" shape="909.08,678.63 916.40,681.24"/>
        <lane id=":1141824924_0_3" index="3" disallow="tram rail_urban rail rail_electric rail_fast ship" speed="8.33" length="8.30" shape="909.08,678.63 911.17,680.01 912.22,681.59 913.30,683.10 915.46,684.29"/>
    </edge>
    <edge id=":1475313873_0" function="internal">
        <lane id=":1475313873_0_0" index="0" disallow="tram rail_urban rail rail_electric rail_fast ship" speed="6.78" length="8.35" shape="1690.34,874.93 1689.23,877.03 1688.89,879.00 1689.32,880.84 1690.52,882.56"/>
        <lane id=":1475313873_0_1" index="1" disallow="tram rail_urban rail rail_electric rail_fast ship" speed="7.62" length="10.77" shape="1690.34,874.93 1688.39,878.18 1687.39,880.90 1687.33,883.10 1688.21,884.77"/>
    </edge>
    <edge id=":1475313873_2" function="internal">
        <lane id=":1475313873_2_0" index="0" allow="bus bicycle" speed="13.89" length="9.86" shape="1683.78,875.43 1690.52,882.56"/>
        <lane id=":1475313873_2_1" index="1" disallow="tram rail_urban rail rail_electric rail_fast ship" speed="13.89" length="9.86" shape="1681.44,877.62 1688.21,884.77"/>
        <lane id=":1475313873_2_2" index="2" disallow="tram rail_urban rail rail_electric rail_fast ship" speed="13.89" length="9.86" shape="1679.11,879.81 1685.90,886.99"/>
        <lane id=":1475313873_2_3" index="3" disallow="tram rail_urban rail rail_electric rail_fast ship" speed="13.89" length="9.86" shape="1676.78,882.00 1683.59,889.20"/>
    </edge>
    <edge id=":1779413250_0" function="internal">
        <lane id=":1779413250_0_0" index="0" disallow="tram rail_urban rail rail_electric rail_fast ship" speed="13.89" length="9.52" shape="1509.66,658.19 1511.74,660.50 1513.67,661.74 1515.34,663.09 1516.64,665.75"/>
        <lane id=":1779413250_0_1" index="1" disallow="tram rail_urban rail rail_electric rail_fast ship" speed="13.89" length="9.52" shape="1506.99,659.95 1508.92,662.02 1510.75,663.08 1512.35,664.26 1513.57,666.65"/>
        <lane id=":1779413250_0_2" index="2" disallow="tram rail_urban rail rail_electric rail_fast ship" speed="13.89" length="9.52" shape="1506.99,659.95 1508.34,662.05 1509.16,663.56 1509.78,665.16 1510.50,667.56"/>
    </edge>
    <edge id=":1818648896_0" function="internal">
        <lane id=":1818648896_0_0" index="0" disallow="tram rail_urban rail rail_electric rail_fast ship" speed="8.33" length="7.95" shape="681.64,658.81 673.74,658.23"/>
        <lane id=":1818648896_0_1" index="1" disallow="tram rail_urban rail rail_electric rail_fast ship" speed="8.33" length="7.95" shape="681.89,655.62 673.95,655.04"/>
    </edge>
    <edge id=":1818648896_2" function="internal">
        <lane id=":1818648896_2_0" index="0" disallow="tram rail_urban rail rail_electric rail_fast ship" speed="8.33" length="8.56" shape="674.38,648.66 676.89,648.32 678.52,647.33 680.14,646.35 682.65,646.05"/>
        <lane id=":1818648896_2_1" index="1" disallow="tram rail_urban rail rail_electric rail_fast ship" speed="8.33" length="8.56" shape="674.16,651.85 676.66,651.52 678.28,650.53 679.90,649.55 682.40,649.24"/>
        <lane id=":1818648896_2_2" index="2" disallow="tram rail_urban rail rail_electric rail_fast ship" speed="8.33" length="8.56" shape="674.16,651.85 682.15,652.43"/>
    </edge>
    <edge id=":1818648902_0" function="internal">
        <lane id=":1818648902_0_0" index="0" disallow="tram rail_urban rail rail_electric rail_fast ship" speed="8.33" length="21.08" shape="746.88,667.17 740.67,666.18 736.48,664.74 732.37,663.32 726.44,662.35"/>
        <lane id=":1818648902_0_1" index="1" disallow="tram rail_urban rail rail_electric rail_fast ship" speed="8.33" length="21.08" shape="747.14,663.98 740.93,662.99 736.73,661.55 732.62,660.13 726.70,659.16"/>
    </edge>
    <edge id=":1818648902_2" function="internal">
        <lane id=":1818648902_2_0" index="0" disallow="tram rail_urban rail rail_electric rail_fast ship" speed="9.78" length="5.54" shape="747.39,660.79 742.20,659.43 742.07,659.32"/>
    </edge>
    <edge id=":1818648902_3" function="internal">
        <lane id=":1818648902_3_0" index="0" disallow="tram rail_urban rail rail_electric rail_fast ship" speed="3.65" length="1.44" shape="747.39,660.79 746.25,659.90"/>
    </edge>
    <edge id=":1818648902_11" function="internal">
        <lane id=":1818648902_11_0" index="0" disallow="tram rail_urban rail rail_electric rail_fast ship" speed="9.78" length="16.39" shape="742.07,659.32 738.69,656.31 736.86,651.42 736.72,644.77"/>
    </edge>
    <edge id=":1818648902_12" function="internal">
        <lane id=":1818648902_12_0" index="0" disallow="tram rail_urban rail rail_electric rail_fast ship" speed="3.65" length="3.23" shape="746.25,659.90 745.92,659.07 746.38,658.31 747.64,657.60"/>
    </edge>
    <edge id=":1818648902_4" function="internal">
        <lane id=":1818648902_4_0" index="0" disallow="tram rail_urban rail rail_electric rail_fast ship" speed="7.25" length="11.56" shape="743.09,645.36 743.09,649.16 743.89,651.93 745.49,653.68 747.89,654.41"/>
    </edge>
    <edge id=":1818648902_5" function="internal">
        <lane id=":1818648902_5_0" index="0" disallow="tram rail_urban rail rail_electric rail_fast ship" speed="9.86" length="21.87" shape="739.90,645.07 738.56,651.58 735.91,656.10 731.96,658.63 726.70,659.16"/>
    </edge>
    <edge id=":1818648902_6" function="internal">
        <lane id=":1818648902_6_0" index="0" disallow="tram rail_urban rail rail_electric rail_fast ship" speed="3.65" length="2.34" shape="739.90,645.07 738.99,646.19 738.16,646.51"/>
    </edge>
    <edge id=":1818648902_13" function="internal">
        <lane id=":1818648902_13_0" index="0" disallow="tram rail_urban rail rail_electric rail_fast ship" speed="3.65" length="2.34" shape="738.16,646.51 737.40,646.04 736.72,644.77"/>
    </edge>
    <edge id=":1818648902_7" function="internal">
        <lane id=":1818648902_7_0" index="0" disallow="tram rail_urban rail rail_electric rail_fast ship" speed="6.54" length="9.03" shape="727.45,649.59 729.92,649.43 731.75,648.53 732.96,646.87 733.53,644.47"/>
    </edge>
    <edge id=":1818648902_8" function="internal">
        <lane id=":1818648902_8_0" index="0" disallow="tram rail_urban rail rail_electric rail_fast ship" speed="8.33" length="21.08" shape="727.45,649.59 733.66,650.58 737.86,652.01 741.97,653.44 747.89,654.41"/>
        <lane id=":1818648902_8_1" index="1" disallow="tram rail_urban rail rail_electric rail_fast ship" speed="8.33" length="21.08" shape="727.20,652.78 733.41,653.77 737.61,655.20 741.71,656.63 747.64,657.60"/>
    </edge>
    <edge id=":1818648902_10" function="internal">
        <lane id=":1818648902_10_0" index="0" disallow="tram rail_urban rail rail_electric rail_fast ship" speed="3.65" length="1.44" shape="726.95,655.97 728.08,656.86"/>
    </edge>
    <edge id=":1818648902_14" function="internal">
        <lane id=":1818648902_14_0" index="0" disallow="tram rail_urban rail rail_electric rail_fast ship" speed="3.65" length="3.23" shape="728.08,656.86 728.42,657.69 727.96,658.45 726.70,659.16"/>
    </edge>
    <edge id=":2098466364_0" function="internal">
        <lane id=":2098466364_0_0" index="0" disallow="tram rail_urban rail rail_electric rail_fast ship" speed="13.89" length="0.13" shape="745.66,572.02 745.62,572.15"/>
    </edge>
    <edge id=":2098466364_1" function="internal">
        <lane id=":2098466364_1_0" index="0" disallow="tram rail_urban rail rail_electric rail_fast ship" speed="13.89" length="0.10" shape="742.52,571.77 742.48,571.74"/>
    </edge>
    <edge id=":2098466408_0" function="internal">
        <lane id=":2098466408_0_0" index="0" disallow="tram rail_urban rail rail_electric rail_fast ship" speed="13.89" length="26.72" shape="742.64,627.33 747.19,600.96"/>
        <lane id=":2098466408_0_1" index="1" disallow="tram rail_urban rail rail_electric rail_fast ship" speed="13.89" length="26.72" shape="742.64,627.33 744.01,600.67"/>
    </edge>
    <edge id=":2098466408_2" function="internal">
        <lane id=":2098466408_2_0" index="0" disallow="tram rail_urban rail rail_electric rail_fast ship" speed="13.89" length="26.81" shape="737.63,600.08 737.19,626.89"/>
    </edge>
    <edge id=":2098466775_0" function="internal">
        <lane id=":2098466775_0_0" index="0" disallow="tram rail_urban rail rail_electric rail_fast ship" speed="8.33" length="3.84" shape="674.73,853.69 673.81,853.04 673.11,852.68 672.34,852.50 671.21,852.38"/>
    </edge>
    <edge id=":2098466775_1" function="internal">
        <lane id=":2098466775_1_0" index="0" disallow="tram rail_urban rail rail_electric rail_fast ship" speed="8.33" length="3.99" shape="671.47,849.20 672.65,849.28 673.47,849.24 674.25,849.02 675.33,848.55"/>
    </edge>
    <edge id=":2098466775_2" function="internal">
        <lane id=":2098466775_2_0" index="0" disallow="tram rail_urban rail rail_electric rail_fast ship" speed="3.65" length="4.67" shape="671.47,849.20 672.61,850.09 672.94,850.92 672.47,851.69 671.21,852.38"/>
    </edge>
    <edge id=":21487284_0" function="internal">
        <lane id=":21487284_0_0" index="0" allow="bus bicycle" speed="6.39" length="9.04" shape="1549.22,741.63 1548.06,743.84 1547.91,745.85 1548.78,747.68 1550.67,749.31"/>
        <lane id=":21487284_0_1" index="1" disallow="tram rail_urban rail rail_electric rail_fast ship" speed="7.22" length="11.83" shape="1549.22,741.63 1547.24,744.98 1546.54,747.82 1547.10,750.17 1548.93,752.01"/>
    </edge>
    <edge id=":21487284_2" function="internal">
        <lane id=":21487284_2_0" index="0" disallow="tram rail_urban rail rail_electric rail_fast ship" speed="3.65" length="4.67" shape="1549.22,741.63 1547.87,742.13 1546.98,741.98 1546.57,741.19 1546.63,739.75"/>
    </edge>
    <edge id=":21487284_3" function="internal">
        <lane id=":21487284_3_0" index="0" disallow="tram rail_urban rail rail_electric rail_fast ship" speed="7.57" length="10.97" shape="1537.36,743.54 1539.74,744.19 1542.08,743.78 1544.37,742.30 1546.63,739.75"/>
    </edge>
    <edge id=":21487284_4" function="internal">
        <lane id=":21487284_4_0" index="0" disallow="tram rail_urban rail rail_electric rail_fast ship" speed="13.89" length="14.03" shape="1537.36,743.54 1541.03,745.66 1543.30,747.51 1545.49,749.50 1548.93,752.01"/>
        <lane id=":21487284_4_1" index="1" disallow="tram rail_urban rail rail_electric rail_fast ship" speed="13.89" length="14.03" shape="1535.94,746.41 1539.52,748.48 1541.72,750.30 1543.84,752.24 1547.20,754.70"/>
        <lane id=":21487284_4_2" index="2" disallow="tram rail_urban rail rail_electric rail_fast ship" speed="13.89" length="14.03" shape="1534.52,749.28 1538.01,751.30 1540.14,753.08 1542.20,754.99 1545.47,757.39"/>
    </edge>
    <edge id=":2247733130_0" function="internal">
        <lane id=":2247733130_0_0" index="0" disallow="tram rail_urban rail rail_electric rail_fast ship" speed="6.58" length="9.16" shape="1226.27,498.29 1223.76,498.47 1221.90,499.41 1220.69,501.09 1220.14,503.52"/>
    </edge>
    <edge id=":2247733130_1" function="internal">
        <lane id=":2247733130_1_0" index="0" disallow="tram rail_urban rail rail_electric rail_fast ship" speed="8.33" length="14.48" shape="1226.27,498.29 1211.82,497.23"/>
    </edge>
    <edge id=":2247733130_2" function="internal">
        <lane id=":2247733130_2_0" index="0" disallow="tram rail_urban rail rail_electric rail_fast ship" speed="7.97" length="14.26" shape="1226.27,498.29 1222.44,497.48 1219.81,495.63 1218.38,492.75 1218.15,488.84"/>
    </edge>
    <edge id=":2247733130_3" function="internal">
        <lane id=":2247733130_3_0" index="0" disallow="tram rail_urban rail rail_electric rail_fast ship" speed="3.65" length="4.67" shape="1226.27,498.29 1225.12,497.41 1224.78,496.59 1225.23,495.82 1226.48,495.10"/>
    </edge>
    <edge id=":2247733130_4" function="internal">
        <lane id=":2247733130_4_0" index="0" disallow="tram rail_urban rail rail_electric rail_fast ship" speed="6.47" length="9.03" shape="1221.34,489.11 1221.48,491.59 1222.39,493.41 1224.05,494.58 1226.48,495.10"/>
    </edge>
    <edge id=":2247733130_5" function="internal">
        <lane id=":2247733130_5_0" index="0" disallow="tram rail_urban rail rail_electric rail_fast ship" speed="8.33" length="14.46" shape="1221.34,489.11 1220.14,503.52"/>
    </edge>
    <edge id=":2247733130_6" function="internal">
        <lane id=":2247733130_6_0" index="0" disallow="tram rail_urban rail rail_electric rail_fast ship" speed="8.03" length="14.25" shape="1221.34,489.11 1220.46,492.93 1218.59,495.55 1215.71,496.98 1211.82,497.23"/>
    </edge>
    <edge id=":2247733130_7" function="internal">
        <lane id=":2247733130_7_0" index="0" disallow="tram rail_urban rail rail_electric rail_fast ship" speed="3.65" length="4.67" shape="1221.34,489.11 1220.44,490.24 1219.61,490.57 1218.85,490.11 1218.15,488.84"/>
    </edge>
    <edge id=":2247733130_8" function="internal">
        <lane id=":2247733130_8_0" index="0" disallow="tram rail_urban rail rail_electric rail_fast ship" speed="6.54" length="9.10" shape="1212.08,494.04 1214.56,493.88 1216.39,492.96 1217.59,491.28 1218.15,488.84"/>
    </edge>
    <edge id=":2247733130_9" function="internal">
        <lane id=":2247733130_9_0" index="0" disallow="tram rail_urban rail rail_electric rail_fast ship" speed="8.33" length="14.44" shape="1212.08,494.04 1226.48,495.10"/>
    </edge>
    <edge id=":2247733130_10" function="internal">
        <lane id=":2247733130_10_0" index="0" disallow="tram rail_urban rail rail_electric rail_fast ship" speed="8.00" length="14.20" shape="1212.08,494.04 1215.88,494.89 1218.48,496.76 1219.91,499.64 1220.14,503.52"/>
    </edge>
    <edge id=":2247733130_11" function="internal">
        <lane id=":2247733130_11_0" index="0" disallow="tram rail_urban rail rail_electric rail_fast ship" speed="3.65" length="4.67" shape="1212.08,494.04 1213.21,494.93 1213.54,495.76 1213.08,496.53 1211.82,497.23"/>
    </edge>
    <edge id=":2247733130_12" function="internal">
        <lane id=":2247733130_12_0" index="0" disallow="tram rail_urban rail rail_electric rail_fast ship" speed="6.50" length="9.03" shape="1216.95,503.26 1216.80,500.79 1215.90,498.96 1214.24,497.77 1211.82,497.23"/>
    </edge>
    <edge id=":2247733130_13" function="internal">
        <lane id=":2247733130_13_0" index="0" disallow="tram rail_urban rail rail_electric rail_fast ship" speed="8.33" length="14.47" shape="1216.95,503.26 1218.15,488.84"/>
    </edge>
    <edge id=":2247733130_14" function="internal">
        <lane id=":2247733130_14_0" index="0" disallow="tram rail_urban rail rail_electric rail_fast ship" speed="8.06" length="14.26" shape="1216.95,503.26 1217.82,499.47 1219.69,496.84 1222.58,495.39 1226.48,495.10"/>
    </edge>
    <edge id=":2247733130_15" function="internal">
        <lane id=":2247733130_15_0" index="0" disallow="tram rail_urban rail rail_electric rail_fast ship" speed="3.65" length="4.67" shape="1216.95,503.26 1217.84,502.13 1218.67,501.80 1219.44,502.26 1220.14,503.52"/>
    </edge>
    <edge id=":2302455925_0" function="internal">
        <lane id=":2302455925_0_0" index="0" allow="bus bicycle" speed="13.89" length="0.49" shape="1668.86,859.55 1669.32,860.02"/>
        <lane id=":2302455925_0_1" index="1" disallow="tram rail_urban rail rail_electric rail_fast ship" speed="13.89" length="0.49" shape="1666.60,861.82 1666.99,862.21"/>
        <lane id=":2302455925_0_2" index="2" disallow="tram rail_urban rail rail_electric rail_fast ship" speed="13.89" length="0.49" shape="1664.35,864.09 1664.65,864.40"/>
        <lane id=":2302455925_0_3" index="3" disallow="tram rail_urban rail rail_electric rail_fast ship" speed="13.89" length="0.49" shape="1662.09,866.36 1662.32,866.59"/>
    </edge>
    <edge id=":237258233_0" function="internal">
        <lane id=":237258233_0_0" index="0" disallow="tram rail_urban rail rail_electric rail_fast ship" speed="3.65" length="4.67" shape="1549.42,958.70 1548.12,959.33 1547.23,959.27 1546.74,958.52 1546.66,957.08"/>
    </edge>
    <edge id=":25661967_0" function="internal">
        <lane id=":25661967_0_0" index="0" disallow="tram rail_urban rail rail_electric rail_fast ship" speed="3.65" length="4.67" shape="514.76,931.51 513.87,932.65 513.04,932.99 512.28,932.53 511.57,931.27"/>
    </edge>
    <edge id=":25661967_1" function="internal">
        <lane id=":25661967_1_0" index="0" disallow="tram rail_urban rail rail_electric rail_fast ship" speed="6.07" length="9.07" shape="505.38,935.47 507.92,935.88 509.80,935.32 511.01,933.79 511.57,931.27"/>
    </edge>
    <edge id=":25661969_0" function="internal">
        <lane id=":25661969_0_0" index="0" disallow="tram rail_urban rail rail_electric rail_fast ship" speed="6.72" length="9.72" shape="527.64,840.59 525.16,840.79 523.32,841.85 522.11,843.77 521.54,846.55"/>
    </edge>
    <edge id=":25661969_1" function="internal">
        <lane id=":25661969_1_0" index="0" disallow="tram rail_urban rail rail_electric rail_fast ship" speed="8.33" length="15.08" shape="527.64,840.59 523.90,840.71 520.15,841.35 516.41,842.00 512.67,842.13"/>
    </edge>
    <edge id=":25661969_2" function="internal">
        <lane id=":25661969_2_0" index="0" disallow="tram rail_urban rail rail_electric rail_fast ship" speed="8.15" length="14.53" shape="527.64,840.59 524.48,839.38 521.83,836.75 520.04,833.34 519.50,829.82"/>
    </edge>
    <edge id=":25661969_3" function="internal">
        <lane id=":25661969_3_0" index="0" disallow="tram rail_urban rail rail_electric rail_fast ship" speed="3.65" length="4.67" shape="527.64,840.59 526.51,839.69 526.17,838.86 526.64,838.10 527.90,837.40"/>
    </edge>
    <edge id=":25661969_4" function="internal">
        <lane id=":25661969_4_0" index="0" disallow="tram rail_urban rail rail_electric rail_fast ship" speed="6.93" length="10.22" shape="522.70,830.01 522.86,833.07 523.79,835.32 525.47,836.76 527.90,837.40"/>
    </edge>
    <edge id=":25661969_5" function="internal">
        <lane id=":25661969_5_0" index="0" disallow="tram rail_urban rail rail_electric rail_fast ship" speed="13.89" length="16.58" shape="522.70,830.01 521.54,846.55"/>
    </edge>
    <edge id=":25661969_6" function="internal">
        <lane id=":25661969_6_0" index="0" disallow="tram rail_urban rail rail_electric rail_fast ship" speed="8.62" length="5.99" shape="522.70,830.01 521.65,834.16 520.78,835.63"/>
    </edge>
    <edge id=":25661969_7" function="internal">
        <lane id=":25661969_7_0" index="0" disallow="tram rail_urban rail rail_electric rail_fast ship" speed="3.65" length="1.44" shape="522.70,830.01 521.83,831.16"/>
    </edge>
    <edge id=":25661969_16" function="internal">
        <lane id=":25661969_16_0" index="0" disallow="tram rail_urban rail rail_electric rail_fast ship" speed="8.62" length="10.88" shape="520.78,835.63 519.30,838.17 516.14,841.12 512.67,842.13"/>
    </edge>
    <edge id=":25661969_17" function="internal">
        <lane id=":25661969_17_0" index="0" disallow="tram rail_urban rail rail_electric rail_fast ship" speed="3.65" length="3.23" shape="521.83,831.16 521.00,831.51 520.23,831.06 519.50,829.82"/>
    </edge>
    <edge id=":25661969_8" function="internal">
        <lane id=":25661969_8_0" index="0" disallow="tram rail_urban rail rail_electric rail_fast ship" speed="6.17" length="8.06" shape="513.20,833.23 515.87,833.17 517.81,832.58 519.02,831.47 519.50,829.82"/>
    </edge>
    <edge id=":25661969_9" function="internal">
        <lane id=":25661969_9_0" index="0" disallow="tram rail_urban rail rail_electric rail_fast ship" speed="8.33" length="15.32" shape="513.20,833.23 516.90,833.97 520.55,835.29 524.20,836.62 527.90,837.40"/>
    </edge>
    <edge id=":25661969_10" function="internal">
        <lane id=":25661969_10_0" index="0" disallow="tram rail_urban rail rail_electric rail_fast ship" speed="8.87" length="17.84" shape="513.20,833.23 517.23,834.30 519.96,836.88 521.40,840.96 521.54,846.55"/>
    </edge>
    <edge id=":25661969_11" function="internal">
        <lane id=":25661969_11_0" index="0" disallow="tram rail_urban rail rail_electric rail_fast ship" speed="4.63" length="8.91" shape="513.20,833.23 512.67,842.13"/>
    </edge>
    <edge id=":25661969_12" function="internal">
        <lane id=":25661969_12_0" index="0" disallow="tram rail_urban rail rail_electric rail_fast ship" speed="6.13" length="7.91" shape="518.35,846.29 518.10,844.65 517.08,843.40 515.26,842.56 512.67,842.13"/>
    </edge>
    <edge id=":25661969_13" function="internal">
        <lane id=":25661969_13_0" index="0" disallow="tram rail_urban rail rail_electric rail_fast ship" speed="13.89" length="16.52" shape="518.35,846.29 519.50,829.82"/>
    </edge>
    <edge id=":25661969_14" function="internal">
        <lane id=":25661969_14_0" index="0" disallow="tram rail_urban rail rail_electric rail_fast ship" speed="7.97" length="4.38" shape="518.35,846.29 519.38,843.02 519.95,842.27"/>
    </edge>
    <edge id=":25661969_15" function="internal">
        <lane id=":25661969_15_0" index="0" disallow="tram rail_urban rail rail_electric rail_fast ship" speed="3.65" length="1.44" shape="518.35,846.29 519.24,845.16"/>
    </edge>
    <edge id=":25661969_18" function="internal">
        <lane id=":25661969_18_0" index="0" disallow="tram rail_urban rail rail_electric rail_fast ship" speed="7.97" length="9.72" shape="519.95,842.27 521.63,840.09 524.63,838.03 527.90,837.40"/>
    </edge>
    <edge id=":25661969_19" function="internal">
        <lane id=":25661969_19_0" index="0" disallow="tram rail_urban rail rail_electric rail_fast ship" speed="3.65" length="3.23" shape="519.24,845.16 520.07,844.83 520.84,845.29 521.54,846.55"/>
    </edge>
    <edge id=":25662041_0" function="internal">
        <lane id=":25662041_0_0" index="0" disallow="tram rail_urban rail rail_electric rail_fast ship" speed="6.45" length="9.03" shape="533.76,741.80 531.27,741.93 529.45,742.83 528.29,744.50 527.79,746.93"/>
    </edge>
    <edge id=":25662041_1" function="internal">
        <lane id=":25662041_1_0" index="0" disallow="tram rail_urban rail rail_electric rail_fast ship" speed="8.05" length="14.24" shape="533.76,741.80 529.88,740.92 527.21,739.05 525.74,736.22 525.47,732.41"/>
    </edge>
    <edge id=":25662041_2" function="internal">
        <lane id=":25662041_2_0" index="0" disallow="tram rail_urban rail rail_electric rail_fast ship" speed="3.65" length="4.67" shape="533.76,741.80 532.63,740.90 532.30,740.07 532.77,739.31 534.04,738.62"/>
    </edge>
    <edge id=":25662041_3" function="internal">