<routes>
    <flow id="detecting-0" begin="80" end="81" number="1" from="-17.0.00" to="22.0.00" speedFactor="1.0" speedDev="0.2"></flow>
    <flow id="detecting-1" begin="110" end="111" number="1" from="-17.0.00" to="22.0.00" speedFactor="1.0" speedDev="0.2"></flow>
    <!-- <flow id="detecting-2" begin="120" end="121" number="1" from="-17.0.00" to="22.0.00" speedFactor="1.0" speedDev="0.2"></flow> -->

</routes>