<routes>
    <flow id="ego-0" begin="85" end="86" number="1" from="-6.0.00" to="22.0.00" maxSpeed="2" speedFactor="1.0" speedDev="0.2">
      <stop parkingArea="pa-1" duration="1000"/>
        <param key="parking.absfreespace.weight" value="0.5"/>
        <param key="parking.distanceto.weight" value="0.5"/>
    </flow>
</routes>