<routes>
    <flow id="invadingVehicle-0" begin="100" end="101" number="1" from="-17.0.00" to="22.0.00" speedFactor="1.0" speedDev="0.2">
      <stop parkingArea="pa-1" duration="1000"/>
        <param key="parking.absfreespace.weight" value="0.5"/>
        <param key="parking.distanceto.weight" value="0.5"/>
    </flow>
</routes>